*SPEF "IEEE 1481-1999"
*DESIGN "Bicubic"
*DATE "Mon Feb 24 14:04:00 2025"
*VENDOR "SYNOPSYS INC"
*PROGRAM "Synopsys Design Compiler cmos"
*VERSION "T-2022.03"
*DESIGN_FLOW "SYNTHESIS"
*DIVIDER /
*DELIMITER :
*BUS_DELIMITER []
*T_UNIT 1.0 NS
*C_UNIT 1.0 PF
*R_UNIT 1.0 KOHM
*L_UNIT 1.0 HENRY

*PORTS

CLK I *L 0.000e+00 *S 0.000e+00 0.000e+00 
RST I *L 0.000e+00 *S 1.226e-03 1.226e-03 
V0\[6\] I *L 0.000e+00 *S 1.197e-03 1.197e-03 
V0\[5\] I *L 0.000e+00 *S 1.289e-03 1.289e-03 
V0\[4\] I *L 0.000e+00 *S 1.197e-03 1.197e-03 
V0\[3\] I *L 0.000e+00 *S 1.197e-03 1.197e-03 
V0\[2\] I *L 0.000e+00 *S 1.197e-03 1.197e-03 
V0\[1\] I *L 0.000e+00 *S 1.289e-03 1.289e-03 
V0\[0\] I *L 0.000e+00 *S 1.182e-03 1.182e-03 
H0\[6\] I *L 0.000e+00 *S 1.146e-03 1.146e-03 
H0\[5\] I *L 0.000e+00 *S 5.833e-03 5.833e-03 
H0\[4\] I *L 0.000e+00 *S 2.346e-03 2.346e-03 
H0\[3\] I *L 0.000e+00 *S 2.346e-03 2.346e-03 
H0\[2\] I *L 0.000e+00 *S 2.346e-03 2.346e-03 
H0\[1\] I *L 0.000e+00 *S 3.561e-03 3.561e-03 
H0\[0\] I *L 0.000e+00 *S 2.438e-03 2.438e-03 
SW\[4\] I *L 0.000e+00 *S 1.146e-03 1.146e-03 
SW\[3\] I *L 0.000e+00 *S 2.431e-03 2.431e-03 
SW\[2\] I *L 0.000e+00 *S 1.146e-03 1.146e-03 
SW\[1\] I *L 0.000e+00 *S 2.410e-03 2.410e-03 
SW\[0\] I *L 0.000e+00 *S 8.254e-03 8.254e-03 
SH\[4\] I *L 0.000e+00 *S 2.448e-03 2.448e-03 
SH\[3\] I *L 0.000e+00 *S 2.340e-03 2.340e-03 
SH\[2\] I *L 0.000e+00 *S 2.340e-03 2.340e-03 
SH\[1\] I *L 0.000e+00 *S 2.613e-03 2.613e-03 
SH\[0\] I *L 0.000e+00 *S 3.758e-03 3.758e-03 
TW\[5\] I *L 0.000e+00 *S 4.798e-03 4.798e-03 
TW\[4\] I *L 0.000e+00 *S 4.829e-03 4.829e-03 
TW\[3\] I *L 0.000e+00 *S 2.613e-03 2.613e-03 
TW\[2\] I *L 0.000e+00 *S 4.829e-03 4.829e-03 
TW\[1\] I *L 0.000e+00 *S 2.510e-03 2.510e-03 
TW\[0\] I *L 0.000e+00 *S 8.652e-03 8.652e-03 
TH\[5\] I *L 0.000e+00 *S 2.905e-03 2.905e-03 
TH\[4\] I *L 0.000e+00 *S 3.610e-03 3.610e-03 
TH\[3\] I *L 0.000e+00 *S 3.576e-03 3.576e-03 
TH\[2\] I *L 0.000e+00 *S 1.146e-03 1.146e-03 
TH\[1\] I *L 0.000e+00 *S 2.395e-03 2.395e-03 
TH\[0\] I *L 0.000e+00 *S 8.427e-03 8.427e-03 
DONE O *L 1.000e+00 *S 5.876e-01 4.054e-01 

*R_NET RST 1.226e-02
*DRIVER RST
*CELL NULL
*C2_R1_C1 6.128e-03 5.667e-06 6.128e-03 
*LOADS
*RC U16878:A 6.945e-08
*END

*R_NET V0\[6\] 1.197e-02
*DRIVER V0\[6\]
*CELL NULL
*C2_R1_C1 5.985e-03 5.667e-06 5.985e-03 
*LOADS
*RC U17634:A1 6.782e-08
*END

*R_NET V0\[5\] 1.289e-02
*DRIVER V0\[5\]
*CELL NULL
*C2_R1_C1 6.443e-03 5.667e-06 6.443e-03 
*LOADS
*RC U17625:B1 7.302e-08
*END

*R_NET V0\[4\] 1.197e-02
*DRIVER V0\[4\]
*CELL NULL
*C2_R1_C1 5.985e-03 5.667e-06 5.985e-03 
*LOADS
*RC U13016:A1 6.782e-08
*END

*R_NET V0\[3\] 1.197e-02
*DRIVER V0\[3\]
*CELL NULL
*C2_R1_C1 5.985e-03 5.667e-06 5.985e-03 
*LOADS
*RC U17619:A1 6.782e-08
*END

*R_NET V0\[2\] 1.197e-02
*DRIVER V0\[2\]
*CELL NULL
*C2_R1_C1 5.985e-03 5.667e-06 5.985e-03 
*LOADS
*RC U17637:A1 6.782e-08
*END

*R_NET V0\[1\] 1.289e-02
*DRIVER V0\[1\]
*CELL NULL
*C2_R1_C1 6.443e-03 5.667e-06 6.443e-03 
*LOADS
*RC U17629:B1 7.302e-08
*END

*R_NET V0\[0\] 1.182e-02
*DRIVER V0\[0\]
*CELL NULL
*C2_R1_C1 5.912e-03 5.667e-06 5.912e-03 
*LOADS
*RC U18584:A1 6.700e-08
*END

*R_NET H0\[6\] 1.146e-02
*DRIVER H0\[6\]
*CELL NULL
*C2_R1_C1 5.732e-03 5.667e-06 5.732e-03 
*LOADS
*RC U12798:A 6.496e-08
*END

*R_NET H0\[5\] 5.833e-02
*DRIVER H0\[5\]
*CELL NULL
*C2_R1_C1 2.916e-02 2.833e-05 2.916e-02 
*LOADS
*RC U17352:A0N 6.265e-08
*RC U17352:B0 6.741e-08
*RC U17380:B 6.682e-08
*RC U17381:A1 6.869e-08
*RC U17469:A 6.496e-08
*END

*R_NET H0\[4\] 2.346e-02
*DRIVER H0\[4\]
*CELL NULL
*C2_R1_C1 1.173e-02 1.133e-05 1.173e-02 
*LOADS
*RC U17366:A 6.496e-08
*RC U17382:A1 6.796e-08
*END

*R_NET H0\[3\] 2.346e-02
*DRIVER H0\[3\]
*CELL NULL
*C2_R1_C1 1.173e-02 1.133e-05 1.173e-02 
*LOADS
*RC U12997:A 6.496e-08
*RC U17372:A1 6.796e-08
*END

*R_NET H0\[2\] 2.346e-02
*DRIVER H0\[2\]
*CELL NULL
*C2_R1_C1 1.173e-02 1.133e-05 1.173e-02 
*LOADS
*RC U17359:A 6.496e-08
*RC U17373:A1 6.796e-08
*END

*R_NET H0\[1\] 3.561e-02
*DRIVER H0\[1\]
*CELL NULL
*C2_R1_C1 1.781e-02 1.700e-05 1.781e-02 
*LOADS
*RC U12805:A 6.496e-08
*RC U17369:A1N 6.384e-08
*RC U17369:B1 7.302e-08
*END

*R_NET H0\[0\] 2.438e-02
*DRIVER H0\[0\]
*CELL NULL
*C2_R1_C1 1.219e-02 1.133e-05 1.219e-02 
*LOADS
*RC U17353:A 6.496e-08
*RC U17371:B 7.319e-08
*END

*R_NET SW\[4\] 1.146e-02
*DRIVER SW\[4\]
*CELL NULL
*C2_R1_C1 5.732e-03 5.667e-06 5.732e-03 
*LOADS
*RC U17342:A 6.496e-08
*END

*R_NET SW\[3\] 2.431e-02
*DRIVER SW\[3\]
*CELL NULL
*C2_R1_C1 1.215e-02 1.133e-05 1.215e-02 
*LOADS
*RC U17341:A 7.299e-08
*RC U17345:A0 6.476e-08
*END

*R_NET SW\[2\] 1.146e-02
*DRIVER SW\[2\]
*CELL NULL
*C2_R1_C1 5.732e-03 5.667e-06 5.732e-03 
*LOADS
*RC U17339:A 6.496e-08
*END

*R_NET SW\[1\] 2.410e-02
*DRIVER SW\[1\]
*CELL NULL
*C2_R1_C1 1.205e-02 1.133e-05 1.205e-02 
*LOADS
*RC U17340:A 7.299e-08
*RC U17347:A1 6.356e-08
*END

*R_NET SW\[0\] 8.254e-02
*DRIVER SW\[0\]
*CELL NULL
*C2_R1_C1 4.127e-02 3.967e-05 4.127e-02 
*LOADS
*RC U17340:B 7.093e-08
*RC U17347:A0 6.476e-08
*RC U17348:A 6.646e-08
*RC U17354:A 6.646e-08
*RC U17377:A 6.644e-08
*RC U17378:A0 6.793e-08
*RC U17391:A0 6.476e-08
*END

*R_NET SH\[4\] 2.448e-02
*DRIVER SH\[4\]
*CELL NULL
*C2_R1_C1 1.224e-02 1.133e-05 1.224e-02 
*LOADS
*RC U17450:B 7.093e-08
*RC U18398:A0 6.779e-08
*END

*R_NET SH\[3\] 2.340e-02
*DRIVER SH\[3\]
*CELL NULL
*C2_R1_C1 1.170e-02 1.133e-05 1.170e-02 
*LOADS
*RC U18402:B 6.479e-08
*RC U18403:A0 6.779e-08
*END

*R_NET SH\[2\] 2.340e-02
*DRIVER SH\[2\]
*CELL NULL
*C2_R1_C1 1.170e-02 1.133e-05 1.170e-02 
*LOADS
*RC U18399:B 6.479e-08
*RC U18400:A0 6.779e-08
*END

*R_NET SH\[1\] 2.613e-02
*DRIVER SH\[1\]
*CELL NULL
*C2_R1_C1 1.307e-02 1.133e-05 1.307e-02 
*LOADS
*RC U18401:A 6.496e-08
*RC intadd_2\/U5:B 8.314e-08
*END

*R_NET SH\[0\] 3.758e-02
*DRIVER SH\[0\]
*CELL NULL
*C2_R1_C1 1.879e-02 1.700e-05 1.879e-02 
*LOADS
*RC U17435:B 7.093e-08
*RC U17436:A1 7.426e-08
*RC U17455:A0 6.779e-08
*END

*R_NET TW\[5\] 4.798e-02
*DRIVER TW\[5\]
*CELL NULL
*C2_R1_C1 2.399e-02 2.267e-05 2.399e-02 
*LOADS
*RC U17078:A 6.945e-08
*RC U17212:A0N 6.544e-08
*RC U17212:B0 7.266e-08
*RC U17255:A 6.435e-08
*END

*R_NET TW\[4\] 4.829e-02
*DRIVER TW\[4\]
*CELL NULL
*C2_R1_C1 2.414e-02 2.267e-05 2.414e-02 
*LOADS
*RC U16982:A 7.299e-08
*RC U16983:A0 6.476e-08
*RC U17200:A 6.945e-08
*RC U17825:A 6.644e-08
*END

*R_NET TW\[3\] 2.613e-02
*DRIVER TW\[3\]
*CELL NULL
*C2_R1_C1 1.307e-02 1.133e-05 1.307e-02 
*LOADS
*RC U9551:A 8.163e-08
*RC U17831:A 6.644e-08
*END

*R_NET TW\[2\] 4.829e-02
*DRIVER TW\[2\]
*CELL NULL
*C2_R1_C1 2.414e-02 2.267e-05 2.414e-02 
*LOADS
*RC U16950:A 7.299e-08
*RC U16951:A0 6.476e-08
*RC U17081:A 6.945e-08
*RC U17843:A 6.644e-08
*END

*R_NET TW\[1\] 2.510e-02
*DRIVER TW\[1\]
*CELL NULL
*C2_R1_C1 1.255e-02 1.133e-05 1.255e-02 
*LOADS
*RC U16948:A 6.945e-08
*RC U16967:A 7.278e-08
*END

*R_NET TW\[0\] 8.652e-02
*DRIVER TW\[0\]
*CELL NULL
*C2_R1_C1 4.326e-02 3.967e-05 4.326e-02 
*LOADS
*RC U9550:A 8.163e-08
*RC U12968:A 6.644e-08
*RC U16920:A 6.646e-08
*RC U16968:A 7.425e-08
*RC U16971:A 6.644e-08
*RC U17208:A0 6.765e-08
*RC U17422:A0 6.739e-08
*END

*R_NET TH\[5\] 2.905e-02
*DRIVER TH\[5\]
*CELL NULL
*C2_R1_C1 1.452e-02 1.133e-05 1.452e-02 
*LOADS
*RC U12108:A0N 7.012e-08
*RC U12108:B0 9.449e-08
*END

*R_NET TH\[4\] 3.610e-02
*DRIVER TH\[4\]
*CELL NULL
*C2_R1_C1 1.805e-02 1.700e-05 1.805e-02 
*LOADS
*RC U16980:A0N 6.544e-08
*RC U16980:B0 7.266e-08
*RC U17440:A 6.646e-08
*END

*R_NET TH\[3\] 3.576e-02
*DRIVER TH\[3\]
*CELL NULL
*C2_R1_C1 1.788e-02 1.700e-05 1.788e-02 
*LOADS
*RC U486:A 6.455e-08
*RC U17006:A0N 6.544e-08
*RC U17006:B0 7.266e-08
*END

*R_NET TH\[2\] 1.146e-02
*DRIVER TH\[2\]
*CELL NULL
*C2_R1_C1 5.732e-03 5.667e-06 5.732e-03 
*LOADS
*RC U16945:A 6.496e-08
*END

*R_NET TH\[1\] 2.395e-02
*DRIVER TH\[1\]
*CELL NULL
*C2_R1_C1 1.197e-02 1.133e-05 1.197e-02 
*LOADS
*RC U16946:B 7.093e-08
*RC U17442:A0 6.476e-08
*END

*R_NET TH\[0\] 8.427e-02
*DRIVER TH\[0\]
*CELL NULL
*C2_R1_C1 4.214e-02 3.967e-05 4.214e-02 
*LOADS
*RC U16919:A0 6.765e-08
*RC U16946:A 7.299e-08
*RC U17436:B0 7.588e-08
*RC U17442:A1 6.356e-08
*RC U17456:A0 6.739e-08
*RC U17809:A0N 6.265e-08
*RC U17809:B0 6.741e-08
*END

*R_NET n18424 1.212e-02
*DRIVER DONE_reg:Q
*CELL DFFRX2
*C2_R1_C1 6.061e-03 5.667e-06 6.061e-03 
*LOADS
*RC U12120:A1 6.869e-08
*END

*R_NET usereg1 3.494e-02
*DRIVER usereg1_reg:Q
*CELL DFFRHQX4
*C2_R1_C1 1.747e-02 5.667e-06 1.747e-02 
*LOADS
*RC U9543:A 1.980e-07
*END

*R_NET count\[4\] 5.831e-02
*DRIVER count_reg\[4\]:Q
*CELL DFFRX1
*C2_R1_C1 2.916e-02 2.833e-05 2.916e-02 
*LOADS
*RC U12949:B 6.541e-08
*RC U16902:A0 6.739e-08
*RC U16903:A1 6.632e-08
*RC U17686:C 6.592e-08
*RC U17932:B 6.541e-08
*END

*R_NET count\[3\] 8.293e-02
*DRIVER count_reg\[3\]:Q
*CELL DFFRX1
*C2_R1_C1 4.146e-02 3.967e-05 4.146e-02 
*LOADS
*RC U12934:B 6.541e-08
*RC U12993:A 6.764e-08
*RC U13023:A 7.299e-08
*RC U16902:B0 6.584e-08
*RC U16903:A0 6.739e-08
*RC U17930:B 6.541e-08
*RC U17936:B 6.524e-08
*END

*R_NET count\[2\] 8.376e-02
*DRIVER count_reg\[2\]:Q
*CELL DFFRX1
*C2_R1_C1 4.188e-02 3.967e-05 4.188e-02 
*LOADS
*RC U11937:B 7.319e-08
*RC U13023:B 7.093e-08
*RC U16890:B 6.682e-08
*RC U17122:B 6.524e-08
*RC U17928:B 6.541e-08
*RC U17939:B 6.541e-08
*RC U18640:A 6.764e-08
*END

*R_NET count\[1\] 1.218e-02
*DRIVER count_reg\[1\]:Q
*CELL DFFRX1
*C2_R1_C1 6.088e-03 5.667e-06 6.088e-03 
*LOADS
*RC U13024:A 6.899e-08
*END

*R_NET rom_A_reg\[13\] 4.751e-02
*DRIVER rom_A_reg_reg\[13\]:Q
*CELL DFFRX1
*C2_R1_C1 2.376e-02 1.133e-05 2.376e-02 
*LOADS
*RC u_ImgROM:A\[13\] 2.040e-07
*RC U17915:B 6.524e-08
*END

*R_NET rom_A_reg\[12\] 4.785e-02
*DRIVER rom_A_reg_reg\[12\]:Q
*CELL DFFRX1
*C2_R1_C1 2.392e-02 1.133e-05 2.392e-02 
*LOADS
*RC u_ImgROM:A\[12\] 2.040e-07
*RC U17320:A0 6.713e-08
*END

*R_NET rom_A_reg\[11\] 4.694e-02
*DRIVER rom_A_reg_reg\[11\]:Q
*CELL DFFRX1
*C2_R1_C1 2.347e-02 1.133e-05 2.347e-02 
*LOADS
*RC u_ImgROM:A\[11\] 2.040e-07
*RC U18681:A1N 6.199e-08
*END

*R_NET rom_A_reg\[10\] 4.785e-02
*DRIVER rom_A_reg_reg\[10\]:Q
*CELL DFFRX1
*C2_R1_C1 2.392e-02 1.133e-05 2.392e-02 
*LOADS
*RC u_ImgROM:A\[10\] 2.040e-07
*RC U13011:A0 6.713e-08
*END

*R_NET rom_A_reg\[9\] 4.694e-02
*DRIVER rom_A_reg_reg\[9\]:Q
*CELL DFFRX1
*C2_R1_C1 2.347e-02 1.133e-05 2.347e-02 
*LOADS
*RC u_ImgROM:A\[9\] 2.040e-07
*RC U18678:A1N 6.199e-08
*END

*R_NET rom_A_reg\[8\] 4.694e-02
*DRIVER rom_A_reg_reg\[8\]:Q
*CELL DFFRX1
*C2_R1_C1 2.347e-02 1.133e-05 2.347e-02 
*LOADS
*RC u_ImgROM:A\[8\] 2.040e-07
*RC U18677:A1N 6.199e-08
*END

*R_NET rom_A_reg\[7\] 4.694e-02
*DRIVER rom_A_reg_reg\[7\]:Q
*CELL DFFRX1
*C2_R1_C1 2.347e-02 1.133e-05 2.347e-02 
*LOADS
*RC u_ImgROM:A\[7\] 2.040e-07
*RC U18676:A1N 6.199e-08
*END

*R_NET rom_A_reg\[6\] 4.694e-02
*DRIVER rom_A_reg_reg\[6\]:Q
*CELL DFFRX1
*C2_R1_C1 2.347e-02 1.133e-05 2.347e-02 
*LOADS
*RC u_ImgROM:A\[6\] 2.040e-07
*RC U18675:A1N 6.199e-08
*END

*R_NET rom_A_reg\[5\] 4.785e-02
*DRIVER rom_A_reg_reg\[5\]:Q
*CELL DFFRX1
*C2_R1_C1 2.392e-02 1.133e-05 2.392e-02 
*LOADS
*RC u_ImgROM:A\[5\] 2.040e-07
*RC U17139:A0 6.713e-08
*END

*R_NET rom_A_reg\[4\] 4.707e-02
*DRIVER rom_A_reg_reg\[4\]:Q
*CELL DFFRX1
*C2_R1_C1 2.354e-02 1.133e-05 2.354e-02 
*LOADS
*RC u_ImgROM:A\[4\] 2.040e-07
*RC U18536:A0N 6.275e-08
*END

*R_NET rom_A_reg\[3\] 4.694e-02
*DRIVER rom_A_reg_reg\[3\]:Q
*CELL DFFRX1
*C2_R1_C1 2.347e-02 1.133e-05 2.347e-02 
*LOADS
*RC u_ImgROM:A\[3\] 2.040e-07
*RC U18674:A1N 6.199e-08
*END

*R_NET rom_A_reg\[2\] 4.707e-02
*DRIVER rom_A_reg_reg\[2\]:Q
*CELL DFFRX1
*C2_R1_C1 2.354e-02 1.133e-05 2.354e-02 
*LOADS
*RC u_ImgROM:A\[2\] 2.040e-07
*RC U18671:A0N 6.275e-08
*END

*R_NET rom_A_reg\[1\] 4.789e-02
*DRIVER rom_A_reg_reg\[1\]:Q
*CELL DFFRX1
*C2_R1_C1 2.394e-02 1.133e-05 2.394e-02 
*LOADS
*RC u_ImgROM:A\[1\] 2.040e-07
*RC U16930:B0 6.737e-08
*END

*R_NET rom_A_reg\[0\] 4.789e-02
*DRIVER rom_A_reg_reg\[0\]:Q
*CELL DFFRX1
*C2_R1_C1 2.394e-02 1.133e-05 2.394e-02 
*LOADS
*RC u_ImgROM:A\[0\] 2.040e-07
*RC U16928:B0 6.737e-08
*END

*R_NET state1\[1\] 5.041e-02
*DRIVER state1_reg\[1\]:Q
*CELL DFFRX1
*C2_R1_C1 2.520e-02 2.267e-05 2.520e-02 
*LOADS
*RC U16667:A 6.644e-08
*RC U16873:B0 6.465e-08
*RC U16888:A 8.658e-08
*RC U17261:B0 6.798e-08
*END

*R_NET state1\[0\] 1.217e-02
*DRIVER state1_reg\[0\]:Q
*CELL DFFRX1
*C2_R1_C1 6.085e-03 5.667e-06 6.085e-03 
*LOADS
*RC U12120:A0 6.896e-08
*END

*R_NET wait_read 4.552e-02
*DRIVER wait_read_reg:QN
*CELL DFFSX1
*C2_R1_C1 2.276e-02 2.267e-05 2.276e-02 
*LOADS
*RC U462:A 6.455e-08
*RC U12823:B 6.479e-08
*RC U16873:A0N 6.275e-08
*RC U16885:B0 6.584e-08
*END

*R_NET sram_D\[7\] 1.100e-02
*DRIVER sram_D_reg\[7\]:Q
*CELL DFFRX1
*C2_R1_C1 5.500e-03 5.667e-06 5.500e-03 
*LOADS
*RC u_ResultSRAM:D\[7\] 6.233e-08
*END

*R_NET sram_D\[6\] 1.100e-02
*DRIVER sram_D_reg\[6\]:Q
*CELL DFFRX1
*C2_R1_C1 5.500e-03 5.667e-06 5.500e-03 
*LOADS
*RC u_ResultSRAM:D\[6\] 6.233e-08
*END

*R_NET sram_D\[5\] 1.100e-02
*DRIVER sram_D_reg\[5\]:Q
*CELL DFFRX1
*C2_R1_C1 5.500e-03 5.667e-06 5.500e-03 
*LOADS
*RC u_ResultSRAM:D\[5\] 6.233e-08
*END

*R_NET sram_D\[4\] 1.100e-02
*DRIVER sram_D_reg\[4\]:Q
*CELL DFFRX1
*C2_R1_C1 5.500e-03 5.667e-06 5.500e-03 
*LOADS
*RC u_ResultSRAM:D\[4\] 6.233e-08
*END

*R_NET sram_D\[3\] 1.100e-02
*DRIVER sram_D_reg\[3\]:Q
*CELL DFFRX1
*C2_R1_C1 5.500e-03 5.667e-06 5.500e-03 
*LOADS
*RC u_ResultSRAM:D\[3\] 6.233e-08
*END

*R_NET sram_D\[2\] 1.100e-02
*DRIVER sram_D_reg\[2\]:Q
*CELL DFFRX1
*C2_R1_C1 5.500e-03 5.667e-06 5.500e-03 
*LOADS
*RC u_ResultSRAM:D\[2\] 6.233e-08
*END

*R_NET sram_D\[1\] 1.100e-02
*DRIVER sram_D_reg\[1\]:Q
*CELL DFFRX1
*C2_R1_C1 5.500e-03 5.667e-06 5.500e-03 
*LOADS
*RC u_ResultSRAM:D\[1\] 6.233e-08
*END

*R_NET sram_D\[0\] 1.100e-02
*DRIVER sram_D_reg\[0\]:Q
*CELL DFFRX1
*C2_R1_C1 5.500e-03 5.667e-06 5.500e-03 
*LOADS
*RC u_ResultSRAM:D\[0\] 6.233e-08
*END

*R_NET state\[2\] 5.526e-02
*DRIVER state_reg\[2\]:Q
*CELL DFFRX1
*C2_R1_C1 2.763e-02 2.267e-05 2.763e-02 
*LOADS
*RC U16906:C 9.139e-08
*RC U16909:C 9.139e-08
*RC U17349:A 6.764e-08
*RC U18522:A0N 6.275e-08
*END

*R_NET state\[1\] 6.767e-02
*DRIVER state_reg\[1\]:Q
*CELL DFFRX1
*C2_R1_C1 3.384e-02 2.833e-05 3.384e-02 
*LOADS
*RC U16905:A 8.773e-08
*RC U16909:B 9.110e-08
*RC U16943:B 7.235e-08
*RC U16957:B 6.524e-08
*RC U17349:C 6.707e-08
*END

*R_NET state\[0\] 7.979e-02
*DRIVER state_reg\[0\]:Q
*CELL DFFRX1
*C2_R1_C1 3.990e-02 3.400e-05 3.990e-02 
*LOADS
*RC U16905:B 9.110e-08
*RC U16906:B 9.110e-08
*RC U16926:B 6.524e-08
*RC U16938:B 7.235e-08
*RC U16959:B 6.524e-08
*RC U17349:B 6.714e-08
*END

*R_NET cal_fin 2.739e-02
*DRIVER dotcal\/finish_reg:Q
*CELL DFFQX1
*C2_R1_C1 1.369e-02 1.133e-05 1.369e-02 
*LOADS
*RC U17649:A 6.945e-08
*RC U17653:A 8.575e-08
*END

*R_NET rom_Q\[7\] 1.226e-02
*DRIVER u_ImgROM:Q\[7\]
*CELL ImgROM
*C2_R1_C1 6.128e-03 5.667e-06 6.128e-03 
*LOADS
*RC U17675:A 6.945e-08
*END

*R_NET rom_Q\[6\] 1.226e-02
*DRIVER u_ImgROM:Q\[6\]
*CELL ImgROM
*C2_R1_C1 6.128e-03 5.667e-06 6.128e-03 
*LOADS
*RC U17666:A 6.945e-08
*END

*R_NET rom_Q\[5\] 1.226e-02
*DRIVER u_ImgROM:Q\[5\]
*CELL ImgROM
*C2_R1_C1 6.128e-03 5.667e-06 6.128e-03 
*LOADS
*RC U17669:A 6.945e-08
*END

*R_NET rom_Q\[4\] 1.226e-02
*DRIVER u_ImgROM:Q\[4\]
*CELL ImgROM
*C2_R1_C1 6.128e-03 5.667e-06 6.128e-03 
*LOADS
*RC U17663:A 6.945e-08
*END

*R_NET rom_Q\[3\] 1.226e-02
*DRIVER u_ImgROM:Q\[3\]
*CELL ImgROM
*C2_R1_C1 6.128e-03 5.667e-06 6.128e-03 
*LOADS
*RC U17657:A 6.945e-08
*END

*R_NET rom_Q\[2\] 1.226e-02
*DRIVER u_ImgROM:Q\[2\]
*CELL ImgROM
*C2_R1_C1 6.128e-03 5.667e-06 6.128e-03 
*LOADS
*RC U17672:A 6.945e-08
*END

*R_NET rom_Q\[1\] 1.226e-02
*DRIVER u_ImgROM:Q\[1\]
*CELL ImgROM
*C2_R1_C1 6.128e-03 5.667e-06 6.128e-03 
*LOADS
*RC U17660:A 6.945e-08
*END

*R_NET rom_Q\[0\] 1.226e-02
*DRIVER u_ImgROM:Q\[0\]
*CELL ImgROM
*C2_R1_C1 6.128e-03 5.667e-06 6.128e-03 
*LOADS
*RC U17652:A 6.945e-08
*END

*R_NET cal_result\[7\] 1.226e-02
*DRIVER dotcal\/result_reg\[7\]:Q
*CELL DFFQX1
*C2_R1_C1 6.128e-03 5.667e-06 6.128e-03 
*LOADS
*RC U17674:A 6.945e-08
*END

*R_NET cal_result\[6\] 1.226e-02
*DRIVER dotcal\/result_reg\[6\]:Q
*CELL DFFQX1
*C2_R1_C1 6.128e-03 5.667e-06 6.128e-03 
*LOADS
*RC U17665:A 6.945e-08
*END

*R_NET cal_result\[5\] 1.226e-02
*DRIVER dotcal\/result_reg\[5\]:Q
*CELL DFFQX1
*C2_R1_C1 6.128e-03 5.667e-06 6.128e-03 
*LOADS
*RC U17668:A 6.945e-08
*END

*R_NET cal_result\[4\] 1.226e-02
*DRIVER dotcal\/result_reg\[4\]:Q
*CELL DFFQX1
*C2_R1_C1 6.128e-03 5.667e-06 6.128e-03 
*LOADS
*RC U17662:A 6.945e-08
*END

*R_NET cal_result\[3\] 1.226e-02
*DRIVER dotcal\/result_reg\[3\]:Q
*CELL DFFQX1
*C2_R1_C1 6.128e-03 5.667e-06 6.128e-03 
*LOADS
*RC U17656:A 6.945e-08
*END

*R_NET cal_result\[2\] 1.226e-02
*DRIVER dotcal\/result_reg\[2\]:Q
*CELL DFFQX1
*C2_R1_C1 6.128e-03 5.667e-06 6.128e-03 
*LOADS
*RC U17671:A 6.945e-08
*END

*R_NET cal_result\[1\] 1.226e-02
*DRIVER dotcal\/result_reg\[1\]:Q
*CELL DFFQX1
*C2_R1_C1 6.128e-03 5.667e-06 6.128e-03 
*LOADS
*RC U17659:A 6.945e-08
*END

*R_NET cal_result\[0\] 1.226e-02
*DRIVER dotcal\/result_reg\[0\]:Q
*CELL DFFQX1
*C2_R1_C1 6.128e-03 5.667e-06 6.128e-03 
*LOADS
*RC U17654:A 6.945e-08
*END

*R_NET new_y\[5\] 5.844e-02
*DRIVER new_y_reg\[5\]:Q
*CELL DFFRX1
*C2_R1_C1 2.922e-02 2.833e-05 2.922e-02 
*LOADS
*RC U17255:B 6.503e-08
*RC U17285:A 6.644e-08
*RC U17286:A1 6.869e-08
*RC U17806:A1N 6.399e-08
*RC U17806:B1 6.702e-08
*END

*R_NET new_y\[4\] 5.023e-02
*DRIVER new_y_reg\[4\]:Q
*CELL DFFRX1
*C2_R1_C1 2.512e-02 2.267e-05 2.512e-02 
*LOADS
*RC U9542:A 8.163e-08
*RC U17276:A0 6.765e-08
*RC U17284:A0 6.739e-08
*RC U17807:A1 6.796e-08
*END

*R_NET new_y\[3\] 5.910e-02
*DRIVER new_y_reg\[3\]:Q
*CELL DFFRX1
*C2_R1_C1 2.955e-02 2.833e-05 2.955e-02 
*LOADS
*RC U17271:B 6.682e-08
*RC U17272:A 6.646e-08
*RC U17810:A1 6.796e-08
*RC U17811:A1 6.825e-08
*RC U18561:A0 6.542e-08
*END

*R_NET new_y\[2\] 5.920e-02
*DRIVER new_y_reg\[2\]:Q
*CELL DFFRX1
*C2_R1_C1 2.960e-02 2.833e-05 2.960e-02 
*LOADS
*RC U16971:B 6.524e-08
*RC U17280:B0 6.584e-08
*RC U17281:A0 6.896e-08
*RC U17810:B1 6.703e-08
*RC U17811:B0 6.840e-08
*END

*R_NET new_y\[1\] 9.288e-02
*DRIVER new_y_reg\[1\]:Q
*CELL DFFRX2
*C2_R1_C1 4.644e-02 4.533e-05 4.644e-02 
*LOADS
*RC U12968:B 6.524e-08
*RC U17277:A 6.644e-08
*RC U17278:A 6.646e-08
*RC U17808:B1 6.703e-08
*RC U17825:B 6.524e-08
*RC U17831:B 6.524e-08
*RC U17843:B 6.524e-08
*RC U18560:A0 6.542e-08
*END

*R_NET new_y\[0\] 7.190e-02
*DRIVER new_y_reg\[0\]:Q
*CELL DFFRX2
*C2_R1_C1 3.595e-02 3.400e-05 3.595e-02 
*LOADS
*RC U16967:B 7.131e-08
*RC U16968:C 7.210e-08
*RC U17277:B 6.524e-08
*RC U17279:A0 6.739e-08
*RC U18559:A0 6.765e-08
*RC U18560:B0 6.372e-08
*END

*R_NET new_x\[4\] 3.538e-02
*DRIVER new_x_reg\[4\]:Q
*CELL DFFSX1
*C2_R1_C1 1.769e-02 1.700e-05 1.769e-02 
*LOADS
*RC U13010:A 6.738e-08
*RC U17263:A0N 6.544e-08
*RC U17267:A0 6.765e-08
*END

*R_NET new_x\[3\] 3.570e-02
*DRIVER new_x_reg\[3\]:Q
*CELL DFFSX1
*C2_R1_C1 1.785e-02 1.700e-05 1.785e-02 
*LOADS
*RC U17207:B1 6.703e-08
*RC U17262:A0 6.739e-08
*RC U18564:A0 6.786e-08
*END

*R_NET new_x\[2\] 7.148e-02
*DRIVER new_x_reg\[2\]:Q
*CELL DFFSX1
*C2_R1_C1 3.574e-02 3.400e-05 3.574e-02 
*LOADS
*RC U17210:B0 6.776e-08
*RC U17211:B1 6.757e-08
*RC U17232:B0 6.584e-08
*RC U17233:A0 6.793e-08
*RC U17260:A 6.738e-08
*RC U17264:A 6.857e-08
*END

*R_NET new_x\[1\] 8.304e-02
*DRIVER new_x_reg\[1\]:Q
*CELL DFFSX1
*C2_R1_C1 4.152e-02 3.967e-05 4.152e-02 
*LOADS
*RC U17210:A1 6.796e-08
*RC U17211:A1 6.825e-08
*RC U17217:A 6.646e-08
*RC U17219:B0 6.737e-08
*RC U17231:B 6.682e-08
*RC U17260:C 6.592e-08
*RC U17264:C 6.781e-08
*END

*R_NET new_x\[0\] 8.416e-02
*DRIVER new_x_reg\[0\]:Q
*CELL DFFSX1
*C2_R1_C1 4.208e-02 3.967e-05 4.208e-02 
*LOADS
*RC U16968:B 7.332e-08
*RC U17208:B1 6.703e-08
*RC U17218:A0 6.739e-08
*RC U17219:A0 6.713e-08
*RC U17231:A 6.738e-08
*RC U17260:B 6.682e-08
*RC U17264:B 6.782e-08
*END

*R_NET sram_A\[11\] 2.700e-02
*DRIVER sram_A_reg\[11\]:Q
*CELL DFFRX1
*C2_R1_C1 1.350e-02 5.667e-06 1.350e-02 
*LOADS
*RC u_ResultSRAM:A\[11\] 1.530e-07
*END

*R_NET sram_A\[10\] 3.851e-02
*DRIVER sram_A_reg\[10\]:Q
*CELL DFFRX1
*C2_R1_C1 1.926e-02 1.133e-05 1.926e-02 
*LOADS
*RC u_ResultSRAM:A\[10\] 1.530e-07
*RC U18553:B 6.524e-08
*END

*R_NET sram_A\[9\] 3.851e-02
*DRIVER sram_A_reg\[9\]:Q
*CELL DFFRX1
*C2_R1_C1 1.926e-02 1.133e-05 1.926e-02 
*LOADS
*RC u_ResultSRAM:A\[9\] 1.530e-07
*RC U18550:B 6.524e-08
*END

*R_NET sram_A\[8\] 3.851e-02
*DRIVER sram_A_reg\[8\]:Q
*CELL DFFRX1
*C2_R1_C1 1.926e-02 1.133e-05 1.926e-02 
*LOADS
*RC u_ResultSRAM:A\[8\] 1.530e-07
*RC U18548:B 6.524e-08
*END

*R_NET sram_A\[7\] 3.851e-02
*DRIVER sram_A_reg\[7\]:Q
*CELL DFFRX1
*C2_R1_C1 1.926e-02 1.133e-05 1.926e-02 
*LOADS
*RC u_ResultSRAM:A\[7\] 1.530e-07
*RC U18546:B 6.524e-08
*END

*R_NET sram_A\[6\] 3.851e-02
*DRIVER sram_A_reg\[6\]:Q
*CELL DFFRX1
*C2_R1_C1 1.926e-02 1.133e-05 1.926e-02 
*LOADS
*RC u_ResultSRAM:A\[6\] 1.530e-07
*RC U18544:B 6.524e-08
*END

*R_NET sram_A\[5\] 3.851e-02
*DRIVER sram_A_reg\[5\]:Q
*CELL DFFRX1
*C2_R1_C1 1.926e-02 1.133e-05 1.926e-02 
*LOADS
*RC u_ResultSRAM:A\[5\] 1.530e-07
*RC U13012:B 6.524e-08
*END

*R_NET sram_A\[4\] 3.851e-02
*DRIVER sram_A_reg\[4\]:Q
*CELL DFFRX1
*C2_R1_C1 1.926e-02 1.133e-05 1.926e-02 
*LOADS
*RC u_ResultSRAM:A\[4\] 1.530e-07
*RC U18541:B 6.524e-08
*END

*R_NET sram_A\[3\] 3.851e-02
*DRIVER sram_A_reg\[3\]:Q
*CELL DFFRX1
*C2_R1_C1 1.926e-02 1.133e-05 1.926e-02 
*LOADS
*RC u_ResultSRAM:A\[3\] 1.530e-07
*RC U18539:B 6.524e-08
*END

*R_NET sram_A\[2\] 2.700e-02
*DRIVER sram_A_reg\[2\]:Q
*CELL DFFRX1
*C2_R1_C1 1.350e-02 5.667e-06 1.350e-02 
*LOADS
*RC u_ResultSRAM:A\[2\] 1.530e-07
*END

*R_NET sram_A\[1\] 3.851e-02
*DRIVER sram_A_reg\[1\]:Q
*CELL DFFRX1
*C2_R1_C1 1.926e-02 1.133e-05 1.926e-02 
*LOADS
*RC u_ResultSRAM:A\[1\] 1.530e-07
*RC U18537:B 6.524e-08
*END

*R_NET sram_A\[0\] 3.851e-02
*DRIVER sram_A_reg\[0\]:Q
*CELL DFFRX1
*C2_R1_C1 1.926e-02 1.133e-05 1.926e-02 
*LOADS
*RC u_ResultSRAM:A\[0\] 1.530e-07
*RC U17701:B 6.524e-08
*END

*R_NET cal_busy 1.226e-02
*DRIVER dotcal\/busy_reg:Q
*CELL DFFQX1
*C2_R1_C1 6.128e-03 5.667e-06 6.128e-03 
*LOADS
*RC U13027:A 6.945e-08
*END

*R_NET mul_y\[5\] 2.439e-02
*DRIVER mul_y_reg\[5\]:Q
*CELL DFFRX1
*C2_R1_C1 1.219e-02 1.133e-05 1.219e-02 
*LOADS
*RC U6508:A0N 6.450e-08
*RC U6508:B0 7.370e-08
*END

*R_NET mul_y\[4\] 4.858e-02
*DRIVER mul_y_reg\[4\]:Q
*CELL DFFRX1
*C2_R1_C1 2.429e-02 2.267e-05 2.429e-02 
*LOADS
*RC U11892:A0 6.713e-08
*RC U12987:A 6.818e-08
*RC U17450:A 7.299e-08
*RC U18398:A1 6.700e-08
*END

*R_NET mul_y\[3\] 4.745e-02
*DRIVER mul_y_reg\[3\]:Q
*CELL DFFRX1
*C2_R1_C1 2.372e-02 2.267e-05 2.372e-02 
*LOADS
*RC U11893:A0 6.713e-08
*RC U12987:D 6.829e-08
*RC U18402:A 6.646e-08
*RC U18403:A1 6.700e-08
*END

*R_NET mul_y\[2\] 4.747e-02
*DRIVER mul_y_reg\[2\]:Q
*CELL DFFRX1
*C2_R1_C1 2.373e-02 2.267e-05 2.373e-02 
*LOADS
*RC U12987:C 6.839e-08
*RC U13009:A0 6.713e-08
*RC U18399:A 6.646e-08
*RC U18400:A1 6.700e-08
*END

*R_NET mul_y\[1\] 1.199e-02
*DRIVER mul_y_reg\[1\]:Q
*CELL DFFRX1
*C2_R1_C1 5.996e-03 5.667e-06 5.996e-03 
*LOADS
*RC U12987:B 6.796e-08
*END

*R_NET mul_y\[0\] 5.076e-02
*DRIVER mul_y_reg\[0\]:Q
*CELL DFFRX1
*C2_R1_C1 2.538e-02 2.267e-05 2.538e-02 
*LOADS
*RC U16916:B0 7.266e-08
*RC U17435:A 7.299e-08
*RC U17436:A0 7.501e-08
*RC U17455:A1 6.700e-08
*END

*R_NET mul_x\[5\] 3.610e-02
*DRIVER mul_x_reg\[5\]:Q
*CELL DFFRX1
*C2_R1_C1 1.805e-02 1.700e-05 1.805e-02 
*LOADS
*RC U17399:A0N 6.544e-08
*RC U17399:B0 7.266e-08
*RC U17692:A 6.644e-08
*END

*R_NET mul_x\[4\] 2.385e-02
*DRIVER mul_x_reg\[4\]:Q
*CELL DFFRX1
*C2_R1_C1 1.192e-02 1.133e-05 1.192e-02 
*LOADS
*RC intadd_3\/U2:A 6.718e-08
*RC U16933:B 6.796e-08
*END

*R_NET mul_x\[3\] 2.651e-02
*DRIVER mul_x_reg\[3\]:Q
*CELL DFFRX1
*C2_R1_C1 1.326e-02 1.133e-05 1.326e-02 
*LOADS
*RC U16933:D 6.829e-08
*RC intadd_3\/U3:A 8.196e-08
*END

*R_NET mul_x\[2\] 2.389e-02
*DRIVER mul_x_reg\[2\]:Q
*CELL DFFRX1
*C2_R1_C1 1.194e-02 1.133e-05 1.194e-02 
*LOADS
*RC U16933:A 6.818e-08
*RC intadd_3\/U4:A 6.718e-08
*END

*R_NET mul_x\[1\] 3.544e-02
*DRIVER mul_x_reg\[1\]:Q
*CELL DFFRX1
*C2_R1_C1 1.772e-02 1.700e-05 1.772e-02 
*LOADS
*RC U16933:C 6.839e-08
*RC U17690:B 6.524e-08
*RC intadd_3\/U5:A 6.718e-08
*END

*R_NET mul\[5\] 1.140e-01
*DRIVER mul_reg\[5\]:Q
*CELL DFFQX4
*C2_R1_C1 5.702e-02 4.533e-05 5.702e-02 
*LOADS
*RC U10065:C 1.471e-07
*RC U11814:B 6.541e-08
*RC U11833:B 6.524e-08
*RC U11834:A 7.670e-08
*RC U11835:B 6.524e-08
*RC U11886:B 6.524e-08
*RC U17499:B 6.990e-08
*RC U17505:C 9.139e-08
*END

*R_NET mul\[4\] 5.974e-02
*DRIVER mul_reg\[4\]:Q
*CELL DFFQX2
*C2_R1_C1 2.987e-02 2.833e-05 2.987e-02 
*LOADS
*RC U4864:B 6.595e-08
*RC U11847:A 6.496e-08
*RC U11848:C 6.707e-08
*RC U11892:B0 6.737e-08
*RC U17154:B 7.319e-08
*END

*R_NET mul\[3\] 8.388e-02
*DRIVER mul_reg\[3\]:Q
*CELL DFFQX4
*C2_R1_C1 4.194e-02 3.400e-05 4.194e-02 
*LOADS
*RC U6103:A 1.055e-07
*RC U11848:B 6.714e-08
*RC U11893:B0 6.737e-08
*RC U17059:C 9.139e-08
*RC U17063:B 6.990e-08
*RC U17154:A 7.401e-08
*END

*R_NET mul\[2\] 5.698e-02
*DRIVER mul_reg\[2\]:Q
*CELL DFFQX2
*C2_R1_C1 2.849e-02 2.267e-05 2.849e-02 
*LOADS
*RC U4883:A 9.092e-08
*RC U13009:B0 6.737e-08
*RC U17009:B 7.319e-08
*RC U17056:C 9.139e-08
*END

*R_NET mul\[1\] 1.117e-01
*DRIVER mul_reg\[1\]:Q
*CELL DFFQX4
*C2_R1_C1 5.586e-02 5.100e-05 5.586e-02 
*LOADS
*RC U4882:A 6.945e-08
*RC U11831:A 6.496e-08
*RC U11836:A 6.646e-08
*RC U11845:A 6.644e-08
*RC U11851:B 6.541e-08
*RC U11887:B 6.524e-08
*RC U16998:A 7.003e-08
*RC U17009:A 7.401e-08
*RC U17056:B 9.110e-08
*END

*R_NET mul\[0\] 1.605e-02
*DRIVER mul_reg\[0\]:Q
*CELL DFFQX1
*C2_R1_C1 8.023e-03 5.667e-06 8.023e-03 
*LOADS
*RC U12801:A 9.092e-08
*END

*R_NET div\[5\] 1.312e-01
*DRIVER div_reg\[5\]:Q
*CELL DFFQX4
*C2_R1_C1 6.560e-02 6.233e-05 6.560e-02 
*LOADS
*RC U5391:A 7.670e-08
*RC U11823:B 6.541e-08
*RC U11825:B 6.541e-08
*RC U11827:B 6.524e-08
*RC U11828:B 6.541e-08
*RC U11829:B 6.524e-08
*RC U11830:B 6.524e-08
*RC U12925:B 6.524e-08
*RC U17567:B 6.990e-08
*RC U17573:C 6.707e-08
*RC U17720:B0 7.266e-08
*END

*R_NET div\[4\] 4.983e-02
*DRIVER div_reg\[4\]:Q
*CELL DFFQX1
*C2_R1_C1 2.491e-02 2.267e-05 2.491e-02 
*LOADS
*RC U4664:A 6.945e-08
*RC U16985:B0 7.266e-08
*RC U17178:B 7.319e-08
*RC U17569:C 6.707e-08
*END

*R_NET div\[3\] 8.714e-02
*DRIVER div_reg\[3\]:Q
*CELL DFFQX2
*C2_R1_C1 4.357e-02 3.967e-05 4.357e-02 
*LOADS
*RC U4673:B 7.131e-08
*RC U17007:B0 7.266e-08
*RC U17084:A 6.496e-08
*RC U17088:B 6.990e-08
*RC U17091:C 7.378e-08
*RC U17178:A 7.401e-08
*RC U17569:B 6.714e-08
*END

*R_NET div\[2\] 6.968e-02
*DRIVER div_reg\[2\]:Q
*CELL DFFQX1
*C2_R1_C1 3.484e-02 2.833e-05 3.484e-02 
*LOADS
*RC U9506:B 1.103e-07
*RC U16953:B0 7.266e-08
*RC U17041:B 7.319e-08
*RC U17085:C 7.378e-08
*RC U17090:A 6.496e-08
*END

*R_NET div\[1\] 1.138e-01
*DRIVER div_reg\[1\]:Q
*CELL DFFQX2
*C2_R1_C1 5.690e-02 5.100e-05 5.690e-02 
*LOADS
*RC U5390:B 8.800e-08
*RC U11809:A 6.496e-08
*RC U11822:A 6.644e-08
*RC U17024:A 6.644e-08
*RC U17028:A 7.299e-08
*RC U17039:B 6.541e-08
*RC U17041:A 7.401e-08
*RC U17085:B 7.393e-08
*RC U17697:B0 7.266e-08
*END

*R_NET div\[0\] 5.058e-02
*DRIVER div_reg\[0\]:Q
*CELL DFFQX1
*C2_R1_C1 2.529e-02 2.267e-05 2.529e-02 
*LOADS
*RC U6534:A 9.092e-08
*RC U13005:B 6.524e-08
*RC U17024:B 6.524e-08
*RC U17035:B 6.524e-08
*END

*R_NET dot_reg1\[3\]\[7\] 2.278e-02
*DRIVER dot_reg1_reg\[3\]\[7\]:Q
*CELL DFFQX1
*C2_R1_C1 1.139e-02 1.133e-05 1.139e-02 
*LOADS
*RC U17909:B 6.524e-08
*RC U18663:A1N 6.384e-08
*END

*R_NET dot_reg1\[3\]\[6\] 2.278e-02
*DRIVER dot_reg1_reg\[3\]\[6\]:Q
*CELL DFFQX1
*C2_R1_C1 1.139e-02 1.133e-05 1.139e-02 
*LOADS
*RC U17906:B 6.524e-08
*RC U18664:A1N 6.384e-08
*END

*R_NET dot_reg1\[3\]\[5\] 2.278e-02
*DRIVER dot_reg1_reg\[3\]\[5\]:Q
*CELL DFFQX1
*C2_R1_C1 1.139e-02 1.133e-05 1.139e-02 
*LOADS
*RC U17903:B 6.524e-08
*RC U18665:A1N 6.384e-08
*END

*R_NET dot_reg1\[3\]\[4\] 2.278e-02
*DRIVER dot_reg1_reg\[3\]\[4\]:Q
*CELL DFFQX1
*C2_R1_C1 1.139e-02 1.133e-05 1.139e-02 
*LOADS
*RC U17901:B 6.524e-08
*RC U18666:A1N 6.384e-08
*END

*R_NET dot_reg1\[3\]\[3\] 2.278e-02
*DRIVER dot_reg1_reg\[3\]\[3\]:Q
*CELL DFFQX1
*C2_R1_C1 1.139e-02 1.133e-05 1.139e-02 
*LOADS
*RC U17898:B 6.524e-08
*RC U18667:A1N 6.384e-08
*END

*R_NET dot_reg1\[3\]\[2\] 2.278e-02
*DRIVER dot_reg1_reg\[3\]\[2\]:Q
*CELL DFFQX1
*C2_R1_C1 1.139e-02 1.133e-05 1.139e-02 
*LOADS
*RC U17895:B 6.524e-08
*RC U18668:A1N 6.384e-08
*END

*R_NET dot_reg1\[3\]\[1\] 2.278e-02
*DRIVER dot_reg1_reg\[3\]\[1\]:Q
*CELL DFFQX1
*C2_R1_C1 1.139e-02 1.133e-05 1.139e-02 
*LOADS
*RC U17892:B 6.524e-08
*RC U18669:A1N 6.384e-08
*END

*R_NET dot_reg1\[3\]\[0\] 2.306e-02
*DRIVER dot_reg1_reg\[3\]\[0\]:Q
*CELL DFFQX1
*C2_R1_C1 1.153e-02 1.133e-05 1.153e-02 
*LOADS
*RC U16673:B1 6.683e-08
*RC U18662:A1N 6.384e-08
*END

*R_NET dot_reg1\[2\]\[7\] 2.278e-02
*DRIVER dot_reg1_reg\[2\]\[7\]:Q
*CELL DFFQX1
*C2_R1_C1 1.139e-02 1.133e-05 1.139e-02 
*LOADS
*RC U16738:B 6.524e-08
*RC U18653:A1N 6.384e-08
*END

*R_NET dot_reg1\[2\]\[6\] 2.278e-02
*DRIVER dot_reg1_reg\[2\]\[6\]:Q
*CELL DFFQX1
*C2_R1_C1 1.139e-02 1.133e-05 1.139e-02 
*LOADS
*RC U16735:B 6.524e-08
*RC U18654:A1N 6.384e-08
*END

*R_NET dot_reg1\[2\]\[5\] 2.278e-02
*DRIVER dot_reg1_reg\[2\]\[5\]:Q
*CELL DFFQX1
*C2_R1_C1 1.139e-02 1.133e-05 1.139e-02 
*LOADS
*RC U12972:B 6.524e-08
*RC U18655:A1N 6.384e-08
*END

*R_NET dot_reg1\[2\]\[4\] 2.278e-02
*DRIVER dot_reg1_reg\[2\]\[4\]:Q
*CELL DFFQX1
*C2_R1_C1 1.139e-02 1.133e-05 1.139e-02 
*LOADS
*RC U16743:B 6.524e-08
*RC U18656:A1N 6.384e-08
*END

*R_NET dot_reg1\[2\]\[3\] 2.278e-02
*DRIVER dot_reg1_reg\[2\]\[3\]:Q
*CELL DFFQX1
*C2_R1_C1 1.139e-02 1.133e-05 1.139e-02 
*LOADS
*RC U16677:B 6.524e-08
*RC U18657:A1N 6.384e-08
*END

*R_NET dot_reg1\[2\]\[2\] 2.278e-02
*DRIVER dot_reg1_reg\[2\]\[2\]:Q
*CELL DFFQX1
*C2_R1_C1 1.139e-02 1.133e-05 1.139e-02 
*LOADS
*RC U16672:B 6.524e-08
*RC U18658:A1N 6.384e-08
*END

*R_NET dot_reg1\[2\]\[1\] 2.278e-02
*DRIVER dot_reg1_reg\[2\]\[1\]:Q
*CELL DFFQX1
*C2_R1_C1 1.139e-02 1.133e-05 1.139e-02 
*LOADS
*RC U16687:B 6.524e-08
*RC U18659:A1N 6.384e-08
*END

*R_NET dot_reg1\[2\]\[0\] 2.278e-02
*DRIVER dot_reg1_reg\[2\]\[0\]:Q
*CELL DFFQX1